Circuit: * Extracted by KLayout with GF180MCU LVS runset on : 08/11/2023 02:19

Fatal Error: No analysis request found.
